*EXP.DETAILS: CCPA9105BN BEAN TPE PABRA

*GENERAL
@PEOPLE
Prakash Jha and Julian Ramirez
@ADDRESS
CIAT Palmira
@SITE
PABRA

*TREATMENTS                        -------------FACTOR LEVELS------------
@N R O C TNAME.................... CU FL SA IC MP MI MF MR MC MT ME MH SM
 1 1 1 0 TPE PABRA                  1  1  0  0  1  0  0  0  0  0  0  0  1
 2 1 1 0 TPE PABRA                  1  1  0  0  2  0  0  0  0  0  0  0  1
 3 1 1 0 TPE PABRA                  1  1  0  0  3  0  0  0  0  0  0  0  1
 4 1 1 0 TPE PABRA                  1  1  0  0  4  0  0  0  0  0  0  0  1
 5 1 1 0 TPE PABRA                  1  1  0  0  5  0  0  0  0  0  0  0  1
 6 1 1 0 TPE PABRA                  1  1  0  0  6  0  0  0  0  0  0  0  1
 7 1 1 0 TPE PABRA                  1  1  0  0  7  0  0  0  0  0  0  0  1
 8 1 1 0 TPE PABRA                  1  1  0  0  8  0  0  0  0  0  0  0  1
 9 1 1 0 TPE PABRA                  1  1  0  0  9  0  0  0  0  0  0  0  1
10 1 1 0 TPE PABRA                  1  1  0  0 10  0  0  0  0  0  0  0  1
11 1 1 0 TPE PABRA                  1  1  0  0 11  0  0  0  0  0  0  0  1
12 1 1 0 TPE PABRA                  1  1  0  0 12  0  0  0  0  0  0  0  1
13 1 1 0 TPE PABRA                  1  1  0  0 13  0  0  0  0  0  0  0  1
14 1 1 0 TPE PABRA                  1  1  0  0 14  0  0  0  0  0  0  0  1
15 1 1 0 TPE PABRA                  1  1  0  0 15  0  0  0  0  0  0  0  1
16 1 1 0 TPE PABRA                  1  1  0  0 16  0  0  0  0  0  0  0  1
17 1 1 0 TPE PABRA                  1  1  0  0 17  0  0  0  0  0  0  0  1
18 1 1 0 TPE PABRA                  1  1  0  0 18  0  0  0  0  0  0  0  1
19 1 1 0 TPE PABRA                  1  1  0  0 19  0  0  0  0  0  0  0  1
20 1 1 0 TPE PABRA                  1  1  0  0 20  0  0  0  0  0  0  0  1
21 1 1 0 TPE PABRA                  1  1  0  0 21  0  0  0  0  0  0  0  1
22 1 1 0 TPE PABRA                  1  1  0  0 22  0  0  0  0  0  0  0  1
23 1 1 0 TPE PABRA                  1  1  0  0 23  0  0  0  0  0  0  0  1
24 1 1 0 TPE PABRA                  1  1  0  0 24  0  0  0  0  0  0  0  1
25 1 1 0 TPE PABRA                  1  1  0  0 25  0  0  0  0  0  0  0  1
26 1 1 0 TPE PABRA                  1  1  0  0 26  0  0  0  0  0  0  0  1
27 1 1 0 TPE PABRA                  1  1  0  0 27  0  0  0  0  0  0  0  1
28 1 1 0 TPE PABRA                  1  1  0  0 28  0  0  0  0  0  0  0  1
29 1 1 0 TPE PABRA                  1  1  0  0 29  0  0  0  0  0  0  0  1
30 1 1 0 TPE PABRA                  1  1  0  0 30  0  0  0  0  0  0  0  1
31 1 1 0 TPE PABRA                  1  1  0  0 31  0  0  0  0  0  0  0  1
32 1 1 0 TPE PABRA                  1  1  0  0 32  0  0  0  0  0  0  0  1
33 1 1 0 TPE PABRA                  1  1  0  0 33  0  0  0  0  0  0  0  1
34 1 1 0 TPE PABRA                  1  1  0  0 34  0  0  0  0  0  0  0  1

*CULTIVARS
@C CR INGENO CNAME
 1 BN IB2013 Calima

*FIELDS
@L ID_FIELD WSTA....  FLSA  FLOB  FLDT  FLDD  FLDS  FLST SLTX  SLDP  ID_SOIL    FLNAME
 1 CCPA0001 UGAND001   -99     0 DR000     0     0 00000 -99    209  UG04719960 -99
@L ...........XCRD ...........YCRD .....ELEV .............AREA .SLEN .FLWR .SLAS FLHST FHDUR
 1             -99             -99       -99               -99   -99   -99   -99   -99   -99

*INITIAL CONDITIONS
@C   PCR ICDAT  ICRT  ICND  ICRN  ICRE  ICWD ICRES ICREN ICREP ICRIP ICRID ICNAME
 1    BN 90058     1   -99     1     1   -99   -99   -99   -99   -99   -99 -99
@C  ICBL  SH2O  SNH4  SNO3
 1     5   .28     0     0

*PLANTING DETAILS
@P PDATE EDATE  PPOP  PPOE  PLME  PLDS  PLRS  PLRD  PLDP  PLWT  PAGE  PENV  PLPH  SPRL                        PLNAME
 1 41041   -99    15    15     S     R    60     0     2   -99   -99   -99   -99   -99                        -99
 2 41048   -99    15    15     S     R    60     0     2   -99   -99   -99   -99   -99                        -99
 3 41055   -99    15    15     S     R    60     0     2   -99   -99   -99   -99   -99                        -99
 4 41062   -99    15    15     S     R    60     0     2   -99   -99   -99   -99   -99                        -99
 5 41069   -99    15    15     S     R    60     0     2   -99   -99   -99   -99   -99                        -99
 6 41076   -99    15    15     S     R    60     0     2   -99   -99   -99   -99   -99                        -99
 7 41083   -99    15    15     S     R    60     0     2   -99   -99   -99   -99   -99                        -99
 8 41090   -99    15    15     S     R    60     0     2   -99   -99   -99   -99   -99                        -99
 9 41097   -99    15    15     S     R    60     0     2   -99   -99   -99   -99   -99                        -99
10 41104   -99    15    15     S     R    60     0     2   -99   -99   -99   -99   -99                        -99
11 41111   -99    15    15     S     R    60     0     2   -99   -99   -99   -99   -99                        -99
12 41118   -99    15    15     S     R    60     0     2   -99   -99   -99   -99   -99                        -99
13 41125   -99    15    15     S     R    60     0     2   -99   -99   -99   -99   -99                        -99
14 41132   -99    15    15     S     R    60     0     2   -99   -99   -99   -99   -99                        -99
15 41139   -99    15    15     S     R    60     0     2   -99   -99   -99   -99   -99                        -99
16 41146   -99    15    15     S     R    60     0     2   -99   -99   -99   -99   -99                        -99
17 41153   -99    15    15     S     R    60     0     2   -99   -99   -99   -99   -99                        -99
18 41160   -99    15    15     S     R    60     0     2   -99   -99   -99   -99   -99                        -99
19 41167   -99    15    15     S     R    60     0     2   -99   -99   -99   -99   -99                        -99
20 41174   -99    15    15     S     R    60     0     2   -99   -99   -99   -99   -99                        -99
21 41181   -99    15    15     S     R    60     0     2   -99   -99   -99   -99   -99                        -99
22 41188   -99    15    15     S     R    60     0     2   -99   -99   -99   -99   -99                        -99
23 41195   -99    15    15     S     R    60     0     2   -99   -99   -99   -99   -99                        -99
24 41202   -99    15    15     S     R    60     0     2   -99   -99   -99   -99   -99                        -99
25 41209   -99    15    15     S     R    60     0     2   -99   -99   -99   -99   -99                        -99
26 41216   -99    15    15     S     R    60     0     2   -99   -99   -99   -99   -99                        -99
27 41223   -99    15    15     S     R    60     0     2   -99   -99   -99   -99   -99                        -99
28 41230   -99    15    15     S     R    60     0     2   -99   -99   -99   -99   -99                        -99
29 41237   -99    15    15     S     R    60     0     2   -99   -99   -99   -99   -99                        -99
30 41244   -99    15    15     S     R    60     0     2   -99   -99   -99   -99   -99                        -99
31 41251   -99    15    15     S     R    60     0     2   -99   -99   -99   -99   -99                        -99
32 41258   -99    15    15     S     R    60     0     2   -99   -99   -99   -99   -99                        -99
33 41272   -99    15    15     S     R    60     0     2   -99   -99   -99   -99   -99                        -99
34 41265   -99    15    15     S     R    60     0     2   -99   -99   -99   -99   -99                        -99

*IRRIGATION AND WATER MANAGEMENT
@I  EFIR  IDEP  ITHR  IEPT  IOFF  IAME  IAMT IRNAME
 1     1   -99   -99   -99   -99   -99   -99 -99
@I IDATE  IROP IRVAL
 1 90061 IR001    40
 1 90073 IR001    50
 1 90089 IR001    45

*FERTILIZERS (INORGANIC)
@F FDATE  FMCD  FACD  FDEP  FAMN  FAMP  FAMK  FAMC  FAMO  FOCD FERNAME
 1 90061 FE009   -99     4     0   -99   -99   -99   -99   -99 -99

*SIMULATION CONTROLS
@N GENERAL     NYERS NREPS START SDATE RSEED SNAME.................... SMODEL
 1 GE             20     1     S 41001  2150 PALMIRA SEED SIZE TRIAL   CRGRO
@N OPTIONS     WATER NITRO SYMBI PHOSP POTAS DISES  CHEM  TILL   CO2
 1 OP              Y     Y     Y     N     N     N     N     Y     W
@N METHODS     WTHER INCON LIGHT EVAPO INFIL PHOTO HYDRO NSWIT MESOM MESEV MESOL
 1 ME              M     M     E     R     S     L     R     1     G     S     2
@N MANAGEMENT  PLANT IRRIG FERTI RESID HARVS
 1 MA              R     R     R     R     M
@N OUTPUTS     FNAME OVVEW SUMRY FROPT GROUT CAOUT WAOUT NIOUT MIOUT DIOUT VBOSE CHOUT OPOUT FMOPT
 1 OU              N     Y     Y     1     Y     Y     Y     Y     N     N     Y     N     N     C

@  AUTOMATIC MANAGEMENT
@N PLANTING    PFRST PLAST PH2OL PH2OU PH2OD PSTMX PSTMN
 1 PL          99155 99200    40   100    30    40    10
@N IRRIGATION  IMDEP ITHRL ITHRU IROFF IMETH IRAMT IREFF
 1 IR             30    70   100 IB001 IB001    10     1
@N NITROGEN    NMDEP NMTHR NAMNT NCODE NAOFF
 1 NI             30  5000    25 IB001 IB001
@N RESIDUES    RIPCN RTIME RIDEP
 1 RE            100     1    20
@N HARVEST     HFRST HLAST HPCNP HPCNR
 1 HA              0 90365   100     0



